     299
GEOMETRY FILE / created by CPMD
 Na      7.380000000000      7.310000000000      7.320000000000   
 Cl     14.220000000000      2.890000000000     14.490000000000   
  O      1.860000000000     14.350000000000     13.480000000000   
  O     10.300000000000      0.770000000000      2.890000000000   
  O      0.610000000000      0.740000000000      3.100000000000   
  O      5.940000000000     14.400000000000      7.200000000000   
  O      6.340000000000      3.230000000000      5.670000000000   
  O      7.020000000000      6.800000000000      8.950000000000   
  O      8.620000000000     14.570000000000      7.170000000000   
  O      5.920000000000      4.960000000000      1.280000000000   
  O      7.440000000000     13.130000000000     11.100000000000   
  O      8.390000000000     11.110000000000      1.820000000000   
  O     12.550000000000     11.580000000000      0.760000000000   
  O     12.190000000000      1.950000000000      4.470000000000   
  O      8.450000000000      0.460000000000      0.840000000000   
  O     12.140000000000      1.100000000000      0.140000000000   
  O      0.680000000000      9.950000000000      9.060000000000   
  O     13.530000000000      2.720000000000      7.680000000000   
  O      7.910000000000      1.450000000000      4.120000000000   
  O     13.750000000000     11.790000000000     12.780000000000   
  O      0.690000000000      9.580000000000     11.600000000000   
  O      8.490000000000      5.930000000000      3.790000000000   
  O      3.690000000000      9.460000000000      6.960000000000   
  O      5.620000000000     10.090000000000      8.760000000000   
  O     10.140000000000      8.210000000000      4.640000000000   
  O      4.620000000000      7.530000000000      9.830000000000   
  O     11.240000000000      5.730000000000      8.470000000000   
  O      6.010000000000      2.320000000000      9.810000000000   
  O      9.190000000000      5.810000000000      0.840000000000   
  O      4.210000000000      1.790000000000      8.130000000000   
  O     11.440000000000      9.050000000000     12.770000000000   
  O     12.060000000000     10.830000000000      5.010000000000   
  O      9.810000000000      3.730000000000      9.830000000000   
  O      2.870000000000     12.720000000000      4.760000000000   
  O      2.170000000000      2.240000000000     13.060000000000   
  O     14.490000000000      3.340000000000     10.110000000000   
  O      6.340000000000      6.200000000000      6.420000000000   
  O      9.720000000000     13.900000000000      9.740000000000   
  O      8.100000000000      1.510000000000     12.990000000000   
  O     10.780000000000     10.480000000000      8.390000000000   
  O      3.770000000000      6.940000000000     13.710000000000   
  O      6.450000000000      8.420000000000      3.230000000000   
  O     10.790000000000      3.310000000000      0.710000000000   
  O      9.120000000000      6.740000000000      6.890000000000   
  O     13.880000000000      5.680000000000      4.260000000000   
  O      4.270000000000     13.520000000000     14.050000000000   
  O      5.030000000000     11.370000000000      0.760000000000   
  O      9.470000000000      8.660000000000      0.760000000000   
  O      2.340000000000      2.300000000000     10.130000000000   
  O      5.730000000000      0.380000000000     11.870000000000   
  O     12.010000000000      7.830000000000      2.240000000000   
  O     12.210000000000     12.510000000000      9.650000000000   
  O     10.100000000000      8.640000000000     10.240000000000   
  O      7.150000000000      8.970000000000      6.910000000000   
  O      0.580000000000     11.950000000000      3.460000000000   
  O      3.270000000000     14.400000000000     10.920000000000   
  O      2.300000000000      7.440000000000      8.110000000000   
  O      1.550000000000      4.410000000000      4.920000000000   
  O     13.120000000000      4.900000000000     13.120000000000   
  O      3.200000000000      8.960000000000      4.280000000000   
  O      1.680000000000      3.270000000000      1.390000000000   
  O     13.080000000000      6.970000000000      6.510000000000   
  O      5.510000000000     13.580000000000      4.700000000000   
  O      4.010000000000      6.210000000000      4.920000000000   
  O     13.280000000000     14.100000000000      1.930000000000   
  O     13.640000000000      6.130000000000     10.100000000000   
  O      0.460000000000      6.830000000000     12.490000000000   
  O     13.650000000000      9.750000000000      2.870000000000   
  O      3.460000000000      9.120000000000     11.720000000000   
  O      4.000000000000      2.050000000000      1.650000000000    
  O     12.800000000000      2.490000000000     11.850000000000   
  O     11.820000000000      5.140000000000      2.590000000000   
  O     10.090000000000     12.900000000000      0.450000000000   
  O     14.270000000000     12.210000000000      6.940000000000   
  O      6.010000000000      0.230000000000      2.400000000000   
  O     12.840000000000     14.370000000000      7.270000000000   
  O      4.640000000000      3.780000000000      3.570000000000   
  O      7.690000000000      4.230000000000     13.570000000000   
  O      9.350000000000     12.100000000000     12.800000000000   
  O      8.750000000000      6.090000000000     10.840000000000   
  O      0.570000000000      7.490000000000      2.750000000000   
  O      2.440000000000     11.920000000000      7.310000000000   
  O     10.900000000000      6.460000000000     12.990000000000   
  O      6.210000000000      9.680000000000     13.500000000000   
  O      7.950000000000      2.810000000000      8.060000000000   
  O      6.330000000000      7.780000000000      0.690000000000   
  O      4.630000000000     12.680000000000      9.100000000000   
  O     13.080000000000      8.570000000000      8.880000000000   
  O     11.160000000000      4.390000000000      5.120000000000   
  O      7.850000000000      9.870000000000     11.300000000000   
  O      7.060000000000     11.160000000000      4.230000000000   
  O      4.410000000000      4.140000000000     13.790000000000   
  O      3.070000000000     11.050000000000      2.510000000000   
  O     13.780000000000     14.340000000000     11.320000000000   
  O     10.310000000000      1.470000000000     11.330000000000   
  O     10.340000000000     12.920000000000      5.270000000000   
  O      8.780000000000     11.260000000000      6.460000000000   
  O      7.940000000000      3.690000000000      2.450000000000   
  O      2.340000000000      6.000000000000      1.120000000000   
  O      5.320000000000      4.880000000000     11.300000000000   
  O      0.190000000000      2.090000000000      5.430000000000   
  H      2.710000000000     13.980000000000     13.850000000000   
  H      1.090000000000     13.780000000000     13.790000000000   
  H     10.910000000000      1.090000000000      3.610000000000   
  H     10.840000000000      0.350000000000      2.150000000000   
  H      0.900000000000      1.400000000000      2.400000000000   
  H      0.550000000000      1.200000000000      3.980000000000   
  H      5.810000000000     14.170000000000      6.230000000000   
  H      5.350000000000     15.180000000000      7.440000000000   
  H      7.050000000000      2.760000000000      5.160000000000   
  H      5.590000000000      3.460000000000      5.050000000000   
  H      6.130000000000      6.780000000000      9.410000000000   
  H      7.730000000000      6.520000000000      9.600000000000   
  H      8.920000000000     13.840000000000      6.540000000000   
  H      7.630000000000     14.490000000000      7.310000000000   
  H      6.790000000000      4.730000000000      1.710000000000   
  H      5.780000000000      4.370000000000      0.490000000000   
  H      8.110000000000     13.470000000000     10.430000000000   
  H      6.700000000000     13.780000000000     11.190000000000   
  H      8.920000000000     10.270000000000      1.930000000000   
  H      8.890000000000     11.750000000000      1.240000000000   
  H     12.710000000000     10.750000000000      1.300000000000   
  H     12.980000000000     12.360000000000      1.210000000000   
  H     11.980000000000      2.910000000000      4.680000000000   
  H     13.110000000000      1.740000000000      4.800000000000   
  H      8.920000000000      0.850000000000      1.630000000000   
  H      8.900000000000     -0.390000000000      0.570000000000   
  H     11.470000000000      0.510000000000     -0.300000000000   
  H     11.680000000000      1.920000000000      0.500000000000   
  H      0.290000000000     10.620000000000      8.430000000000   
  H      1.050000000000      9.180000000000      8.540000000000   
  H     13.460000000000      3.640000000000      7.300000000000   
  H     14.070000000000      2.740000000000      8.520000000000   
  H      7.180000000000      0.830000000000      3.820000000000   
  H      8.790000000000      1.140000000000      3.760000000000   
  H     13.410000000000     11.590000000000     13.700000000000   
  H     13.270000000000     12.590000000000     12.420000000000   
  H      0.920000000000      9.730000000000     10.640000000000   
  H      0.250000000000     10.400000000000     11.970000000000   
  H      8.720000000000      6.910000000000      3.770000000000   
  H      7.830000000000      5.760000000000      4.510000000000   
  H      3.200000000000      8.630000000000      7.260000000000   
  H      4.380000000000      9.700000000000      7.640000000000   
  H      5.800000000000      9.650000000000      9.640000000000   
  H      5.270000000000     11.010000000000      8.910000000000   
  H     10.820000000000      8.370000000000      3.920000000000   
  H      9.910000000000      9.090000000000      5.070000000000   
  H      4.920000000000      6.640000000000     10.180000000000   
  H      4.190000000000      8.050000000000     10.570000000000   
  H     11.950000000000      6.090000000000      9.070000000000   
  H     10.880000000000      4.880000000000      8.840000000000   
  H      5.250000000000      2.100000000000      9.200000000000   
  H      6.760000000000      2.730000000000      9.290000000000   
  H      8.700000000000      5.110000000000      0.320000000000   
  H      9.310000000000      5.500000000000      1.790000000000   
  H      3.500000000000      2.010000000000      8.800000000000   
  H      4.000000000000      2.240000000000      7.270000000000   
  H     10.980000000000      9.130000000000     11.890000000000   
  H     11.390000000000      9.910000000000     13.260000000000   
  H     12.680000000000     10.470000000000      4.310000000000   
  H     12.570000000000     11.000000000000      5.850000000000   
  H     10.160000000000      2.910000000000     10.280000000000   
  H      9.190000000000      3.460000000000      9.090000000000   
  H      3.670000000000     13.310000000000      4.660000000000   
  H      2.640000000000     12.630000000000      5.730000000000   
  H      2.210000000000      1.260000000000     13.240000000000   
  H      1.290000000000      2.600000000000     13.380000000000   
  H     14.310000000000      4.320000000000     10.140000000000   
  H     13.860000000000      2.870000000000     10.710000000000   
  H      5.470000000000      6.430000000000      5.980000000000   
  H      6.590000000000      5.260000000000      6.170000000000   
  H      9.250000000000     13.920000000000      8.860000000000   
  H     10.510000000000     13.300000000000      9.680000000000   
  H      8.260000000000      1.100000000000     13.890000000000   
  H      7.210000000000      1.200000000000     12.640000000000   
  H     11.360000000000     11.160000000000      8.850000000000   
  H     10.340000000000      9.900000000000      9.080000000000   
  H      4.760000000000      6.950000000000     13.840000000000   
  H      3.520000000000      7.620000000000     13.030000000000   
  H      6.840000000000      9.000000000000      3.950000000000   
  H      5.460000000000      8.350000000000      3.360000000000   
  H     10.740000000000      4.070000000000      0.060000000000   
  H     10.010000000000      3.350000000000      1.330000000000   
  H      9.590000000000      7.280000000000      6.190000000000   
  H      9.780000000000      6.370000000000      7.530000000000   
  H     13.180000000000      5.300000000000      3.650000000000   
  H     13.440000000000      6.270000000000      4.940000000000   
  H      4.580000000000     12.790000000000     14.660000000000   
  H      5.040000000000     14.130000000000     13.840000000000   
  H      4.270000000000     11.180000000000      1.390000000000   
  H      5.900000000000     11.210000000000      1.230000000000   
  H      9.320000000000      7.710000000000      1.040000000000   
  H      8.720000000000      8.960000000000      0.170000000000   
  H      1.490000000000      2.720000000000      9.830000000000   
  H      2.640000000000      2.730000000000     10.980000000000   
  H      4.800000000000      0.040000000000     11.810000000000   
  H      5.940000000000      0.940000000000     11.070000000000   
  H     12.570000000000      8.570000000000      2.600000000000   
  H     11.430000000000      8.180000000000      1.500000000000   
  H     12.780000000000     12.800000000000     10.420000000000   
  H     12.360000000000     13.120000000000      8.880000000000   
  H      9.960000000000      7.660000000000     10.090000000000   
  H      9.260000000000      9.050000000000     10.580000000000   
  H      7.720000000000      9.700000000000      6.540000000000   
  H      6.500000000000      9.350000000000      7.560000000000   
  H      0.120000000000     12.820000000000      3.290000000000   
  H      1.380000000000     12.100000000000      4.040000000000   
  H      2.810000000000     15.140000000000     10.420000000000   
  H      2.860000000000     14.320000000000     11.830000000000   
  H      3.110000000000      7.140000000000      8.610000000000   
  H      1.650000000000      6.680000000000      8.060000000000   
  H      2.310000000000      5.050000000000      4.800000000000   
  H      0.690000000000      4.880000000000      4.760000000000   
  H     13.920000000000      5.490000000000     13.000000000000   
  H     12.300000000000      5.460000000000     13.180000000000   
  H      3.250000000000      9.440000000000      5.160000000000   
  H      3.230000000000      9.630000000000      3.530000000000   
  H      0.850000000000      3.070000000000      0.870000000000   
  H      1.960000000000      4.220000000000      1.220000000000   
  H     12.460000000000      6.200000000000      6.690000000000   
  H     13.050000000000      7.600000000000      7.290000000000   
  H      5.720000000000     14.040000000000      3.840000000000   
  H      5.970000000000     12.700000000000      4.740000000000   
  H      4.160000000000      5.450000000000      4.280000000000   
  H      3.880000000000      7.060000000000      4.400000000000   
  H     14.060000000000     14.560000000000      2.360000000000   
  H     12.940000000000     14.670000000000      1.180000000000   
  H     13.940000000000      6.290000000000     11.040000000000   
  H     13.370000000000      7.000000000000      9.690000000000   
  H      1.150000000000      6.660000000000     13.200000000000   
  H      0.590000000000      7.740000000000     12.100000000000   
  H     14.100000000000     10.530000000000      3.320000000000   
  H     14.290000000000      8.980000000000      2.820000000000   
  H      3.860000000000     10.030000000000     11.630000000000   
  H      2.480000000000      9.200000000000     11.880000000000   
  H      4.460000000000      2.130000000000      0.760000000000   
  H      3.060000000000      2.380000000000      1.570000000000   
  H     12.870000000000      3.310000000000     12.420000000000   
  H     11.830000000000      2.290000000000     11.670000000000   
  H     12.010000000000      6.070000000000      2.280000000000   
  H     11.930000000000      4.500000000000      1.830000000000   
  H     10.960000000000     12.550000000000      0.800000000000   
  H      9.990000000000     12.640000000000     -0.510000000000   
  H     13.810000000000     13.040000000000      7.240000000000   
  H     15.250000000000     12.360000000000      6.900000000000   
  H      6.690000000000      0.370000000000      1.680000000000   
  H      5.170000000000      0.730000000000      2.160000000000   
  H     13.110000000000     15.260000000000      7.650000000000   
  H     12.360000000000     14.510000000000      6.400000000000   
  H      5.100000000000      4.200000000000      2.790000000000   
  H      4.200000000000      2.930000000000      3.290000000000   
  H      7.850000000000      3.270000000000     13.370000000000   
  H      7.210000000000      4.660000000000     12.800000000000   
  H      8.870000000000     12.580000000000     12.070000000000   
  H      9.190000000000     11.110000000000     12.710000000000   
  H      9.340000000000      6.440000000000     11.570000000000   
  H      8.800000000000      5.090000000000     10.820000000000   
  H      1.430000000000      7.820000000000      3.130000000000   
  H      0.200000000000      6.770000000000      3.340000000000   
  H      2.910000000000     12.100000000000      8.170000000000   
  H      2.570000000000     10.960000000000      7.050000000000   
  H     11.320000000000      7.350000000000     12.820000000000   
  H     10.360000000000      6.500000000000     13.830000000000   
  H      6.210000000000      8.970000000000     14.210000000000   
  H      5.890000000000     10.540000000000     13.880000000000   
  H      7.110000000000      3.060000000000      7.580000000000   
  H      8.470000000000      2.170000000000      7.500000000000   
  H      6.380000000000      6.780000000000      0.760000000000   
  H      6.500000000000      8.180000000000      1.590000000000   
  H      4.220000000000     13.240000000000      9.820000000000   
  H      5.100000000000     13.270000000000      8.450000000000   
  H     12.220000000000      9.060000000000      8.940000000000   
  H     13.750000000000      9.000000000000      9.490000000000   
  H     10.680000000000      4.790000000000      4.340000000000   
  H     10.950000000000      4.910000000000      5.950000000000   
  H      7.830000000000     10.870000000000     11.280000000000   
  H      7.420000000000      9.550000000000     12.150000000000   
  H      7.410000000000     11.410000000000      3.320000000000   
  H      7.720000000000     11.440000000000      4.920000000000   
  H      3.740000000000      3.410000000000     13.720000000000   
  H      3.950000000000      5.020000000000     13.910000000000   
  H      3.240000000000     11.490000000000      3.390000000000   
  H      2.120000000000     11.190000000000      2.240000000000   
  H     14.720000000000     14.360000000000     11.660000000000   
  H     13.490000000000     15.270000000000     11.090000000000   
  H      9.600000000000      1.420000000000     12.030000000000   
  H     10.210000000000      0.700000000000     10.700000000000   
  H     11.150000000000     12.400000000000      5.000000000000   
  H     10.210000000000     13.670000000000      4.630000000000   
  H      9.170000000000     10.950000000000      7.330000000000   
  H      9.410000000000     11.880000000000      6.000000000000   
  H      8.330000000000      4.470000000000      2.930000000000   
  H      7.960000000000      2.880000000000      3.030000000000   
  H      1.670000000000      6.630000000000      1.510000000000   
  H      3.090000000000      6.520000000000      0.710000000000   
  H      5.750000000000      4.170000000000     10.740000000000   
  H      4.930000000000      4.460000000000     12.120000000000   
  H     -0.220000000000      2.100000000000      6.350000000000   
  H      0.780000000000      2.890000000000      5.330000000000   
